
**** 05/29/23 22:12:49 ******* PSpice Lite (April 2011) ******* ID# 10813 ****

 ** Profile: "SCHEMATIC1-ac_analysis"  [ C:\Users\Public\Downloads\CAD\Filters-PSpiceFiles\SCHEMATIC1\ac_analysis.sim ] 


 ****     CIRCUIT DESCRIPTION


******************************************************************************




** Creating circuit file "ac_analysis.cir" 
** WARNING: THIS AUTOMATICALLY GENERATED FILE MAY BE OVERWRITTEN BY SUBSEQUENT SIMULATIONS

*Libraries: 
* Profile Libraries :
* Local Libraries :
* From [PSPICE NETLIST] section of C:\Cadence\SPB_16.5\tools\PSpice\PSpice.ini file:
.lib "nomd.lib" 

*Analysis directives: 
.AC DEC 101 10 10000K
.PROBE V(alias(*)) I(alias(*)) W(alias(*)) D(alias(*)) NOISE(alias(*)) 
.INC "..\SCHEMATIC1.net" 



**** INCLUDING SCHEMATIC1.net ****
* source FILTERS
R_R1         N00128 N00139  3.3k TC=0,0 
C_C1         0 N00139  0.01u  TC=0,0 
V_V1         N00128 0 DC 0Vdc AC 10Vac 
V_V2         N00483 0 DC 0Vdc AC 10Vac 
R_R2         0 N00490  3.3k TC=0,0 
C_C2         N00483 N00490  0.01u  TC=0,0 

**** RESUMING ac_analysis.cir ****
.END

**** 05/29/23 22:12:49 ******* PSpice Lite (April 2011) ******* ID# 10813 ****

 ** Profile: "SCHEMATIC1-ac_analysis"  [ C:\Users\Public\Downloads\CAD\Filters-PSpiceFiles\SCHEMATIC1\ac_analysis.sim ] 


 ****     SMALL SIGNAL BIAS SOLUTION       TEMPERATURE =   27.000 DEG C


******************************************************************************



 NODE   VOLTAGE     NODE   VOLTAGE     NODE   VOLTAGE     NODE   VOLTAGE


(N00128)    0.0000 (N00139)    0.0000 (N00483)    0.0000 (N00490)    0.0000 




    VOLTAGE SOURCE CURRENTS
    NAME         CURRENT

    V_V1         0.000E+00
    V_V2         0.000E+00

    TOTAL POWER DISSIPATION   0.00E+00  WATTS



          JOB CONCLUDED

**** 05/29/23 22:12:49 ******* PSpice Lite (April 2011) ******* ID# 10813 ****

 ** Profile: "SCHEMATIC1-ac_analysis"  [ C:\Users\Public\Downloads\CAD\Filters-PSpiceFiles\SCHEMATIC1\ac_analysis.sim ] 


 ****     JOB STATISTICS SUMMARY


******************************************************************************



  Total job time (using Solver 1)   =         .02
