
**** 05/29/23 23:36:13 ******* PSpice Lite (April 2011) ******* ID# 10813 ****

 ** Profile: "SCHEMATIC1-input_characterstics"  [ C:\Users\Public\Downloads\CAD\MOSFET-PSpiceFiles\SCHEMATIC1\input_characterstics.si


 ****     CIRCUIT DESCRIPTION


******************************************************************************




** Creating circuit file "input_characterstics.cir" 
** WARNING: THIS AUTOMATICALLY GENERATED FILE MAY BE OVERWRITTEN BY SUBSEQUENT SIMULATIONS

*Libraries: 
* Profile Libraries :
* Local Libraries :
* From [PSPICE NETLIST] section of C:\Cadence\SPB_16.5\tools\PSpice\PSpice.ini file:
.lib "nomd.lib" 

*Analysis directives: 
.DC LIN V_V2 0 10 0.005 
+ LIN V_V1 0 5 1 
.PROBE V(alias(*)) I(alias(*)) W(alias(*)) D(alias(*)) NOISE(alias(*)) 
.INC "..\SCHEMATIC1.net" 



**** INCLUDING SCHEMATIC1.net ****
* source MOSFET
M_M1         N00139 N00128 0 0 MbreakN           
R_R1         N00139 N00143  1k TC=0,0 
V_V1         N00128 0 5Vdc
V_V2         N00143 0 5Vdc

**** RESUMING input_characterstics.cir ****
.END

**** 05/29/23 23:36:13 ******* PSpice Lite (April 2011) ******* ID# 10813 ****

 ** Profile: "SCHEMATIC1-input_characterstics"  [ C:\Users\Public\Downloads\CAD\MOSFET-PSpiceFiles\SCHEMATIC1\input_characterstics.si


 ****     MOSFET MODEL PARAMETERS


******************************************************************************




               MbreakN         
               NMOS            
       LEVEL    1            
           L  100.000000E-06 
           W  100.000000E-06 
         VTO    0            
          KP   20.000000E-06 
       GAMMA    0            
         PHI     .6          
      LAMBDA    0            
          IS   10.000000E-15 
          JS    0            
          PB     .8          
        PBSW     .8          
          CJ    0            
        CJSW    0            
        CGSO    0            
        CGDO    0            
        CGBO    0            
         TOX    0            
          XJ    0            
       UCRIT   10.000000E+03 
      DIOMOD    1            
         VFB    0            
        LETA    0            
        WETA    0            
          U0    0            
        TEMP    0            
         VDD    5            
       XPART    0            



          JOB CONCLUDED

**** 05/29/23 23:36:13 ******* PSpice Lite (April 2011) ******* ID# 10813 ****

 ** Profile: "SCHEMATIC1-input_characterstics"  [ C:\Users\Public\Downloads\CAD\MOSFET-PSpiceFiles\SCHEMATIC1\input_characterstics.si


 ****     JOB STATISTICS SUMMARY


******************************************************************************



  Total job time (using Solver 1)   =         .36
